49

   O    11.30427108    18.49428682    23.94495681  
   C    12.47091898    18.44282422    24.31784294  
   C    13.55436999    18.42725334    23.32442878  
   C    13.12606266    18.51456074    21.92155135  
   C    11.81435161    18.48944113    21.64274818  
   C    12.66193284    18.37067092    25.81374877  
   C    11.71936091    17.62407920    26.51622448  
   H    10.94591738    17.11492247    25.97364398  
   C    11.77023876    17.53562846    27.89300459  
   H    11.04336857    16.93603772    28.41102936  
   C    12.75343201    18.21659567    28.59500711  
   H    12.80845819    18.13322664    29.66373363  
   C    13.66261118    19.00345069    27.90875133  
   H    14.40933985    19.55788697    28.44787626  
   C    13.62757728    19.06941178    26.52358339  
   H    14.34383962    19.67424339    26.00679080  
   C    14.99068544    18.29597342    23.70733719  
   C    15.40805716    17.28626382    24.57362162  
   H    14.69305803    16.58786737    24.96232094  
   C    16.73660159    17.17849169    24.95374347  
   H    17.03476741    16.38834962    25.61866714  
   C    17.67874408    18.06833099    24.46182807  
   H    18.71098312    17.97741531    24.75301613  
   C    17.28364832    19.06227162    23.58070190  
   H    17.99975072    19.74878098    23.16687136  
   C    15.95447179    19.17296581    23.21128888  
   H    15.67502001    19.94512298    22.52365764  
   C    14.07406507    18.62967254    20.75543068  
   C    14.92483677    17.58931764    20.39527441  
   H    14.97344939    16.70931565    21.00958633  
   C    15.70638045    17.67494386    19.25467172  
   H    16.35508556    16.85738751    18.99254827  
   C    15.65200715    18.80638310    18.45380268  
   H    16.24516227    18.87233640    17.55912424  
   C    14.81982364    19.85318372    18.81351925  
   H    14.77355870    20.73945485    18.20764857  
   C    14.03420107    19.76347883    19.95139280  
   H    13.37572713    20.57068601    20.21224876  
   C    10.71315691    18.45934539    20.72430011  
   C    10.80678705    17.88641444    19.44615649  
   H    11.75219080    17.52045665    19.09575568  
   C     9.68603713    17.77445175    18.65012999  
   H     9.76755662    17.29581163    17.69095244  
   C     8.45629292    18.23684680    19.09678514  
   H     7.58338793    18.12081544    18.48307535  
   C     8.34917269    18.81845357    20.35391551  
   H     7.39708357    19.16757676    20.71028537  
   C     9.46089753    18.92577627    21.16089616  
   H     9.38233693    19.35134919    22.14253607  

