49     

     O       11.576672   18.450035   23.431586
     C       12.722495   18.416299   24.179876
     C       13.818950   18.433715   23.344340
     C       13.294914   18.508816   21.996677
     C       11.920885   18.503443   22.107707
     C       12.522390   18.362475   25.629774
     C       11.418536   17.663245   26.149351
     H       10.739247   17.166599   25.464543
     C       11.218660   17.572406   27.524806
     H       10.382798   16.988323   27.898343
     C       12.104465   18.193251   28.408929
     H       11.956236   18.120868   29.482932
     C       13.190565   18.911893   27.901084
     H       13.878829   19.406923   28.581455
     C       13.399820   18.998799   26.525898
     H       14.234532   19.571382   26.139932
     C       15.242581   18.333425   23.732617
     C       15.654797   17.390751   24.690985
     H       14.920619   16.725839   25.132739
     C       16.995737   17.287523   25.058438
     H       17.294220   16.539645   25.786742
     C       17.954929   18.115026   24.466935
     H       19.002200   18.020438   24.745534
     C       17.561388   19.038226   23.495557
     H       18.290623   19.669007   22.995980
     C       16.218880   19.147990   23.136177
     H       15.930327   19.871820   22.383335
     C       14.088553   18.615589   20.747956
     C       14.960237   17.594128   20.338590
     H       15.055234   16.701880   20.949485
     C       15.699787   17.713062   19.160187
     H       16.364642   16.906064   18.861289
     C       15.593436   18.864521   18.376138
     H       16.159033   18.962318   17.453196
     C       14.744122   19.895432   18.785954
     H       14.662966   20.804484   18.197531
     C       13.995938   19.770837   19.955437
     H       13.330952   20.569131   20.265498
     C       10.803120   18.499694   21.164048
     C       10.964433   18.083558   19.830045
     H       11.936592   17.760443   19.478887
     C        9.875429   18.052197   18.962799
     H       10.017083   17.692158   17.947900
     C        8.606473   18.435873   19.403076
     H        7.754672   18.393627   18.730569
     C        8.431496   18.845803   20.727009
     H        7.447801   19.135201   21.083852
     C        9.518337   18.876699   21.597769
     H        9.383606   19.197750   22.624210

