49      
b3lyp/6-31G(d) optimization
      O        11.476804   18.380966   23.345879
      C        12.601708   18.351398   24.125011
      C        13.716364   18.371825   23.312998
      C        13.229455   18.441835   21.952573
      C        11.852480   18.430015   22.030664
      C        12.367512   18.335101   25.569076
      C        11.139830   17.865969   26.073895
      H        10.384814   17.506674   25.382526
      C        10.893171   17.855967   27.444410
      H         9.940122   17.486855   27.814258
      C        11.863121   18.311605   28.339709
      H        11.670133   18.301096   29.408998
      C        13.081325   18.786343   27.848590
      H        13.838686   19.155827   28.534948
      C        13.332980   18.804319   26.478824
      H        14.274590   19.194937   26.110256
      C        15.137736   18.307363   23.725037
      C        15.611723   17.232291   24.495601
      H        14.920498   16.449261   24.794213
      C        16.951406   17.163705   24.876383
      H        17.298877   16.324000   25.472663
      C        17.843923   18.165326   24.488685
      H        18.888494   18.110976   24.783599
      C        17.386625   19.235190   23.717249
      H        18.074005   20.018910   23.409799
      C        16.046313   19.305504   23.337360
      H        15.696033   20.139917   22.737084
      C        14.066211   18.535130   20.733785
      C        15.035706   17.559907   20.449003
      H        15.162975   16.721979   21.127937
      C        15.829864   17.657369   19.306410
      H        16.572917   16.891110   19.101592
      C        15.671816   18.732036   18.429499
      H        16.291490   18.807540   17.539910
      C        14.714732   19.711148   18.704185
      H        14.587746   20.554423   18.030278
      C        13.921601   19.615439   19.847097
      H        13.181231   20.381014   20.061208
      C        10.756081   18.428965   21.061962
      C        10.937591   17.976672   19.741949
      H        11.908653   17.612391   19.426716
      C         9.874674   17.977557   18.841892
      H        10.034417   17.621570   17.827515
      C         8.609976   18.418015   19.238303
      H         7.783004   18.415281   18.533431
      C         8.416167   18.856505   20.549836
      H         7.435921   19.198925   20.871091
      C         9.475499   18.863474   21.453726
      H         9.321001   19.209377   22.470386

