49   

   O     11.408428   18.380167   23.370670
   C     12.555393   18.354331   24.162442
   C     13.713532   18.359954   23.278839
   C     13.248317   18.453823   21.980809
   C     11.792782   18.425692   22.031491
   C     12.359646   18.410805   25.557455
   C     11.028684   18.314494   26.085833
   H     10.201545   18.187628   25.397722
   C     10.799408   18.366158   27.448677
   H      9.781549   18.283287   27.821527
   C     11.863567   18.523959   28.352376
   H     11.676015   18.565525   29.421307
   C     13.173511   18.636459   27.855090
   H     14.002300   18.776030   28.544568
   C     13.428600   18.583370   26.496451
   H     14.444113   18.695908   26.140557
   C     15.132870   18.266362   23.689360
   C     15.594850   17.146702   24.403574
   H     14.893855   16.361642   24.673361
   C     16.937183   17.036823   24.763550
   H     17.276967   16.162323   25.312110
   C     17.841313   18.044600   24.419985
   H     18.887024   17.960033   24.703130
   C     17.393668   19.161244   23.711616
   H     18.089684   19.951264   23.442487
   C     16.052048   19.271199   23.347124
   H     15.708222   20.140960   22.795811
   C     14.083292   18.576482   20.764412
   C     15.033531   17.595565   20.437980
   H     15.136702   16.722410   21.074865
   C     15.837459   17.733409   19.306785
   H     16.564025   16.961612   19.067132
   C     15.709549   18.854563   18.484772
   H     16.336814   18.960872   17.603824
   C     14.769937   19.838692   18.800591
   H     14.665274   20.716488   18.168418
   C     13.962614   19.700890   19.928753
   H     13.231928   20.467655   20.170983
   C     10.758597   18.352847   21.076115
   C     10.994109   18.197037   19.670999
   H     12.007501   18.110910   19.301951
   C      9.937151   18.126547   18.781251
   H     10.144313   18.000269   17.721586
   C      8.606527   18.204551   19.227635
   H      7.785076   18.149641   18.519313
   C      8.352700   18.345344   20.602318
   H      7.327455   18.401440   20.959594
   C      9.392416   18.413846   21.511656
   H      9.185956   18.527190   22.569146

