49      

      O      11.605758   18.434469   23.445768
      C      12.757047   18.354072   24.181439
      C      13.882335   18.374177   23.334282
      C      13.344042   18.544839   21.982974
      C      11.943948   18.539264   22.112832
      C      12.566992   18.317512   25.609727
      C      11.396971   17.716655   26.141859
      H      10.676705   17.276312   25.460881
      C      11.206800   17.634266   27.511590
      H      10.334446   17.113161   27.891800
      C      12.149819   18.186937   28.397681
      H      11.999408   18.126594   29.471696
      C      13.288788   18.821773   27.884197
      H      14.007968   19.272081   28.563379
      C      13.509986   18.881114   26.513255
      H      14.378053   19.396951   26.123482
      C      15.268849   18.273800   23.733937
      C      15.671039   17.412885   24.799964
      H      14.931353   16.777323   25.272485
      C      17.000976   17.326007   25.184326
      H      17.281834   16.628864   25.967922
      C      17.985382   18.098199   24.544235
      H      19.026574   18.019341   24.846118
      C      17.610200   18.943040   23.481367
      H      18.353551   19.540095   22.960594
      C      16.288503   19.019558   23.073078
      H      16.023720   19.687133   22.262667
      C      14.109459   18.672861   20.739186
      C      15.065727   17.707103   20.355658
      H      15.221709   16.838287   20.986002
      C      15.785373   17.841622   19.170737
      H      16.494023   17.066447   18.887359
      C      15.604509   18.964785   18.353829
      H      16.167935   19.080445   17.431957
      C      14.681187   19.943285   18.738892
      H      14.551274   20.840903   18.142671
      C      13.930291   19.792270   19.900000
      H      13.215624   20.553399   20.188210
      C      10.843798   18.539416   21.199421
      C      11.010084   18.192975   19.819926
      H      11.990139   17.921825   19.450606
      C       9.915160   18.141767   18.974449
      H      10.055737   17.824924   17.945542
      C       8.627009   18.461392   19.440729
      H       7.772553   18.416918   18.772728
      C       8.444517   18.810738   20.797406
      H       7.452301   19.055573   21.163365
      C       9.523015   18.834995   21.661514
      H       9.384198   19.106145   22.701406

